test/resources/V1_10/dl-loading-limits.xml
<?xml version="1.0" encoding="UTF-8"?>
<iidm:network xmlns:iidm="http://www.powsybl.org/schema/iidm/1_10" id="dangling-line" caseDate="2013-01-15T18:45:00+01:00" forecastDistance="0" sourceFormat="test" minimumValidationLevel="STEADY_STATE_HYPOTHESIS">
    <iidm:substation id="S" country="FR">
        <iidm:voltageLevel id="VL" nominalV="100" lowVoltageLimit="80" highVoltageLimit="120" topologyKind="BUS_BREAKER">
            <iidm:busBreakerTopology>
                <iidm:bus id="BUS"/>
            </iidm:busBreakerTopology>
            <iidm:generator id="G" energySource="OTHER" minP="0" maxP="100" voltageRegulatorOn="true" targetP="50" targetV="100" targetQ="30" bus="BUS" connectableBus="BUS">
                <iidm:minMaxReactiveLimits minQ="-1.7976931348623157e+308" maxQ="1.7976931348623157e+308"/>
            </iidm:generator>
            <iidm:danglingLine id="DL" p0="50" q0="30" r="10" x="1" g="0.0001" b="1.0000000000000001e-05" bus="BUS" connectableBus="BUS">
                <iidm:activePowerLimits permanentLimit="350">
                    <iidm:temporaryLimit name="20'" acceptableDuration="1200" value="370"/>
                    <iidm:temporaryLimit name="10'" acceptableDuration="600" value="380"/>
                </iidm:activePowerLimits>
                <iidm:apparentPowerLimits permanentLimit="350">
                    <iidm:temporaryLimit name="20'" acceptableDuration="1200" value="370"/>
                    <iidm:temporaryLimit name="10'" acceptableDuration="600" value="380"/>
                </iidm:apparentPowerLimits>
                <iidm:currentLimits permanentLimit="350">
                    <iidm:temporaryLimit name="20'" acceptableDuration="1200" value="370"/>
                    <iidm:temporaryLimit name="10'" acceptableDuration="600" value="380"/>
                </iidm:currentLimits>
            </iidm:danglingLine>
        </iidm:voltageLevel>
    </iidm:substation>
</iidm:network>
